<?xml version="1.0" encoding="UTF-8"?>
<routes>
    <!-- Vehicle types -->
    <vType id="car" accel="2.0" decel="4.5" sigma="0.5" length="5.0" minGap="2.5" maxSpeed="25.0" color="0,0,1"/>
    <vType id="ambulance" accel="2.6" decel="4.5" sigma="0.5" length="5.0" minGap="2.5" maxSpeed="30.0" color="1,0,0"/>

    <!-- 1 ambulance at start, on a valid dead-end/corner edge -->
    <vehicle id="ambulance_0" type="ambulance" depart="0.0">
        <route edges="-gneE9"/>
    </vehicle>
    <!-- For each 100 units, 20 cars and 1 ambulance, all from boundary edges to dead-ends/corners (single edge) -->
    <!-- Example: cycles at t=100, 200, 300, 400, 500 -->
    <!-- Uniformly space departures: every 5 units for 20 cars, ambulance at last slot -->
    <!-- Cycle 1: t=100 -->
    <vehicle id="car_0" type="car" depart="100.0"><route edges="-gneE9"/></vehicle>
    <vehicle id="car_1" type="car" depart="105.0"><route edges="-gneE8"/></vehicle>
    <vehicle id="car_2" type="car" depart="110.0"><route edges="-gneE15"/></vehicle>
    <vehicle id="car_3" type="car" depart="115.0"><route edges="-gneE16"/></vehicle>
    <vehicle id="car_4" type="car" depart="120.0"><route edges="-gneE18"/></vehicle>
    <vehicle id="car_5" type="car" depart="125.0"><route edges="-gneE19"/></vehicle>
    <vehicle id="car_6" type="car" depart="130.0"><route edges="-gneE21"/></vehicle>
    <vehicle id="car_7" type="car" depart="135.0"><route edges="-gneE24"/></vehicle>
    <vehicle id="car_8" type="car" depart="140.0"><route edges="-gneE25"/></vehicle>
    <vehicle id="car_9" type="car" depart="145.0"><route edges="-gneE27"/></vehicle>
    <vehicle id="car_10" type="car" depart="150.0"><route edges="gneE6"/></vehicle>
    <vehicle id="car_11" type="car" depart="155.0"><route edges="gneE7"/></vehicle>
    <vehicle id="car_12" type="car" depart="160.0"><route edges="gneE12"/></vehicle>
    <vehicle id="car_13" type="car" depart="165.0"><route edges="gneE3"/></vehicle>
    <vehicle id="car_14" type="car" depart="170.0"><route edges="gneE19"/></vehicle>
    <vehicle id="car_15" type="car" depart="175.0"><route edges="gneE21"/></vehicle>
    <vehicle id="car_16" type="car" depart="180.0"><route edges="gneE27"/></vehicle>
    <vehicle id="car_17" type="car" depart="185.0"><route edges="gneE23"/></vehicle>
    <vehicle id="car_18" type="car" depart="190.0"><route edges="gneE26"/></vehicle>
    <vehicle id="car_19" type="car" depart="195.0"><route edges="gneE31"/></vehicle>
    <vehicle id="ambulance_1" type="ambulance" depart="199.0">
        <route edges="-gneE8"/>
    </vehicle>
    <!-- Cycle 2: t=200 -->
    <vehicle id="car_20" type="car" depart="200.0"><route edges="-gneE9"/></vehicle>
    <vehicle id="car_21" type="car" depart="205.0"><route edges="-gneE8"/></vehicle>
    <vehicle id="car_22" type="car" depart="210.0"><route edges="-gneE15"/></vehicle>
    <vehicle id="car_23" type="car" depart="215.0"><route edges="-gneE16"/></vehicle>
    <vehicle id="car_24" type="car" depart="220.0"><route edges="-gneE18"/></vehicle>
    <vehicle id="car_25" type="car" depart="225.0"><route edges="-gneE19"/></vehicle>
    <vehicle id="car_26" type="car" depart="230.0"><route edges="-gneE21"/></vehicle>
    <vehicle id="car_27" type="car" depart="235.0"><route edges="-gneE24"/></vehicle>
    <vehicle id="car_28" type="car" depart="240.0"><route edges="-gneE25"/></vehicle>
    <vehicle id="car_29" type="car" depart="245.0"><route edges="-gneE27"/></vehicle>
    <vehicle id="car_30" type="car" depart="250.0"><route edges="gneE6"/></vehicle>
    <vehicle id="car_31" type="car" depart="255.0"><route edges="gneE7"/></vehicle>
    <vehicle id="car_32" type="car" depart="260.0"><route edges="gneE12"/></vehicle>
    <vehicle id="car_33" type="car" depart="265.0"><route edges="gneE3"/></vehicle>
    <vehicle id="car_34" type="car" depart="270.0"><route edges="gneE19"/></vehicle>
    <vehicle id="car_35" type="car" depart="275.0"><route edges="gneE21"/></vehicle>
    <vehicle id="car_36" type="car" depart="280.0"><route edges="gneE27"/></vehicle>
    <vehicle id="car_37" type="car" depart="285.0"><route edges="gneE23"/></vehicle>
    <vehicle id="car_38" type="car" depart="290.0"><route edges="gneE26"/></vehicle>
    <vehicle id="car_39" type="car" depart="295.0"><route edges="gneE31"/></vehicle>
    <vehicle id="ambulance_2" type="ambulance" depart="299.0">
        <route edges="-gneE15"/>
    </vehicle>
    <!-- Cycle 3: t=300 -->
    <vehicle id="car_40" type="car" depart="300.0"><route edges="-gneE9"/></vehicle>
    <vehicle id="car_41" type="car" depart="305.0"><route edges="-gneE8"/></vehicle>
    <vehicle id="car_42" type="car" depart="310.0"><route edges="-gneE15"/></vehicle>
    <vehicle id="car_43" type="car" depart="315.0"><route edges="-gneE16"/></vehicle>
    <vehicle id="car_44" type="car" depart="320.0"><route edges="-gneE18"/></vehicle>
    <vehicle id="car_45" type="car" depart="325.0"><route edges="-gneE19"/></vehicle>
    <vehicle id="car_46" type="car" depart="330.0"><route edges="-gneE21"/></vehicle>
    <vehicle id="car_47" type="car" depart="335.0"><route edges="-gneE24"/></vehicle>
    <vehicle id="car_48" type="car" depart="340.0"><route edges="-gneE25"/></vehicle>
    <vehicle id="car_49" type="car" depart="345.0"><route edges="-gneE27"/></vehicle>
    <vehicle id="car_50" type="car" depart="350.0"><route edges="gneE6"/></vehicle>
    <vehicle id="car_51" type="car" depart="355.0"><route edges="gneE7"/></vehicle>
    <vehicle id="car_52" type="car" depart="360.0"><route edges="gneE12"/></vehicle>
    <vehicle id="car_53" type="car" depart="365.0"><route edges="gneE3"/></vehicle>
    <vehicle id="car_54" type="car" depart="370.0"><route edges="gneE19"/></vehicle>
    <vehicle id="car_55" type="car" depart="375.0"><route edges="gneE21"/></vehicle>
    <vehicle id="car_56" type="car" depart="380.0"><route edges="gneE27"/></vehicle>
    <vehicle id="car_57" type="car" depart="385.0"><route edges="gneE23"/></vehicle>
    <vehicle id="car_58" type="car" depart="390.0"><route edges="gneE26"/></vehicle>
    <vehicle id="car_59" type="car" depart="395.0"><route edges="gneE31"/></vehicle>
    <vehicle id="ambulance_3" type="ambulance" depart="399.0">
        <route edges="-gneE16"/>
    </vehicle>
    <!-- Cycle 4: t=400 -->
    <vehicle id="car_60" type="car" depart="400.0"><route edges="-gneE9"/></vehicle>
    <vehicle id="car_61" type="car" depart="405.0"><route edges="-gneE8"/></vehicle>
    <vehicle id="car_62" type="car" depart="410.0"><route edges="-gneE15"/></vehicle>
    <vehicle id="car_63" type="car" depart="415.0"><route edges="-gneE16"/></vehicle>
    <vehicle id="car_64" type="car" depart="420.0"><route edges="-gneE18"/></vehicle>
    <vehicle id="car_65" type="car" depart="425.0"><route edges="-gneE19"/></vehicle>
    <vehicle id="car_66" type="car" depart="430.0"><route edges="-gneE21"/></vehicle>
    <vehicle id="car_67" type="car" depart="435.0"><route edges="-gneE24"/></vehicle>
    <vehicle id="car_68" type="car" depart="440.0"><route edges="-gneE25"/></vehicle>
    <vehicle id="car_69" type="car" depart="445.0"><route edges="-gneE27"/></vehicle>
    <vehicle id="car_70" type="car" depart="450.0"><route edges="gneE6"/></vehicle>
    <vehicle id="car_71" type="car" depart="455.0"><route edges="gneE7"/></vehicle>
    <vehicle id="car_72" type="car" depart="460.0"><route edges="gneE12"/></vehicle>
    <vehicle id="car_73" type="car" depart="465.0"><route edges="gneE3"/></vehicle>
    <vehicle id="car_74" type="car" depart="470.0"><route edges="gneE19"/></vehicle>
    <vehicle id="car_75" type="car" depart="475.0"><route edges="gneE21"/></vehicle>
    <vehicle id="car_76" type="car" depart="480.0"><route edges="gneE27"/></vehicle>
    <vehicle id="car_77" type="car" depart="485.0"><route edges="gneE23"/></vehicle>
    <vehicle id="car_78" type="car" depart="490.0"><route edges="gneE26"/></vehicle>
    <vehicle id="car_79" type="car" depart="495.0"><route edges="gneE31"/></vehicle>
    <vehicle id="ambulance_4" type="ambulance" depart="499.0">
        <route edges="-gneE18"/>
    </vehicle>
    <!-- Cycle 5: t=500 -->
    <vehicle id="car_80" type="car" depart="500.0"><route edges="-gneE9"/></vehicle>
    <vehicle id="car_81" type="car" depart="505.0"><route edges="-gneE8"/></vehicle>
    <vehicle id="car_82" type="car" depart="510.0"><route edges="-gneE15"/></vehicle>
    <vehicle id="car_83" type="car" depart="515.0"><route edges="-gneE16"/></vehicle>
    <vehicle id="car_84" type="car" depart="520.0"><route edges="-gneE18"/></vehicle>
    <vehicle id="car_85" type="car" depart="525.0"><route edges="-gneE19"/></vehicle>
    <vehicle id="car_86" type="car" depart="530.0"><route edges="-gneE21"/></vehicle>
    <vehicle id="car_87" type="car" depart="535.0"><route edges="-gneE24"/></vehicle>
    <vehicle id="car_88" type="car" depart="540.0"><route edges="-gneE25"/></vehicle>
    <vehicle id="car_89" type="car" depart="545.0"><route edges="-gneE27"/></vehicle>
    <vehicle id="car_90" type="car" depart="550.0"><route edges="gneE6"/></vehicle>
    <vehicle id="car_91" type="car" depart="555.0"><route edges="gneE7"/></vehicle>
    <vehicle id="car_92" type="car" depart="560.0"><route edges="gneE12"/></vehicle>
    <vehicle id="car_93" type="car" depart="565.0"><route edges="gneE3"/></vehicle>
    <vehicle id="car_94" type="car" depart="570.0"><route edges="gneE19"/></vehicle>
    <vehicle id="car_95" type="car" depart="575.0"><route edges="gneE21"/></vehicle>
    <vehicle id="car_96" type="car" depart="580.0"><route edges="gneE27"/></vehicle>
    <vehicle id="car_97" type="car" depart="585.0"><route edges="gneE23"/></vehicle>
    <vehicle id="car_98" type="car" depart="590.0"><route edges="gneE26"/></vehicle>
    <vehicle id="car_99" type="car" depart="595.0"><route edges="gneE31"/></vehicle>
    <vehicle id="ambulance_5" type="ambulance" depart="599.0">
        <route edges="-gneE19"/>
    </vehicle>
    <!-- Cycle 6: t=600 -->
    <vehicle id="car_100" type="car" depart="600.0"><route edges="-gneE9"/></vehicle>
    <vehicle id="car_101" type="car" depart="605.0"><route edges="-gneE8"/></vehicle>
    <vehicle id="car_102" type="car" depart="610.0"><route edges="-gneE15"/></vehicle>
    <vehicle id="car_103" type="car" depart="615.0"><route edges="-gneE16"/></vehicle>
    <vehicle id="car_104" type="car" depart="620.0"><route edges="-gneE18"/></vehicle>
    <vehicle id="car_105" type="car" depart="625.0"><route edges="-gneE19"/></vehicle>
    <vehicle id="car_106" type="car" depart="630.0"><route edges="-gneE21"/></vehicle>
    <vehicle id="car_107" type="car" depart="635.0"><route edges="-gneE24"/></vehicle>
    <vehicle id="car_108" type="car" depart="640.0"><route edges="-gneE25"/></vehicle>
    <vehicle id="car_109" type="car" depart="645.0"><route edges="-gneE27"/></vehicle>
    <vehicle id="car_110" type="car" depart="650.0"><route edges="gneE6"/></vehicle>
    <vehicle id="car_111" type="car" depart="655.0"><route edges="gneE7"/></vehicle>
    <vehicle id="car_112" type="car" depart="660.0"><route edges="gneE12"/></vehicle>
    <vehicle id="car_113" type="car" depart="665.0"><route edges="gneE3"/></vehicle>
    <vehicle id="car_114" type="car" depart="670.0"><route edges="gneE19"/></vehicle>
    <vehicle id="car_115" type="car" depart="675.0"><route edges="gneE21"/></vehicle>
    <vehicle id="car_116" type="car" depart="680.0"><route edges="gneE27"/></vehicle>
    <vehicle id="car_117" type="car" depart="685.0"><route edges="gneE23"/></vehicle>
    <vehicle id="car_118" type="car" depart="690.0"><route edges="gneE26"/></vehicle>
    <vehicle id="car_119" type="car" depart="695.0"><route edges="gneE31"/></vehicle>
    <vehicle id="ambulance_6" type="ambulance" depart="699.0">
        <route edges="-gneE21"/>
    </vehicle>
</routes>
