<?xml version="1.0" encoding="UTF-8"?>

<!-- generated on 2025-04-14 23:42:03.679062 by randomTrips.py UNKNOWN
<configuration>
    <net-file value="city2.net.xml"/>
    <route-file value="city2.rou.xml"/>
    <end value="100.0"/>
</configuration>
-->

<!-- generated on 2025-04-14 23:42:03 by Eclipse SUMO duarouter Version 1.22.0
<duarouterConfiguration xmlns:xsi="http://www.w3.org/2001/XMLSchema-instance" xsi:noNamespaceSchemaLocation="http://sumo.dlr.de/xsd/duarouterConfiguration.xsd">

    <input>
        <net-file value="city2.net.xml"/>
        <route-files value="trips.trips.xml"/>
    </input>

    <output>
        <output-file value="city2.rou.xml"/>
        <alternatives-output value="NUL"/>
    </output>

    <time>
        <begin value="0"/>
        <end value="100.0"/>
    </time>

    <report>
        <no-warnings value="true"/>
        <ignore-errors value="true"/>
        <no-step-log value="true"/>
    </report>

</duarouterConfiguration>
-->

<routes xmlns:xsi="http://www.w3.org/2001/XMLSchema-instance" xsi:noNamespaceSchemaLocation="http://sumo.dlr.de/xsd/routes_file.xsd">
    <vehicle id="6" depart="6.00">
        <route edges="-gneE11 -gneE10 gneE3 -gneE2 -gneE26 -gneE25"/>
    </vehicle>
    <vehicle id="7" depart="7.00">
        <route edges="gneE22 gneE23 gneE24 gneE2 -gneE3 gneE10 gneE11 gneE12"/>
    </vehicle>
    <vehicle id="13" depart="13.00">
        <route edges="-gneE15"/>
    </vehicle>
    <vehicle id="16" depart="16.00">
        <route edges="gneE12 -gneE6 gneE8"/>
    </vehicle>
    <vehicle id="22" depart="22.00">
        <route edges="-gneE14 gneE13 gneE4 gneE5 -gneE29"/>
    </vehicle>
    <vehicle id="27" depart="27.00">
        <route edges="gneE22 gneE23 gneE24 gneE2 -gneE4 -gneE13 gneE14 gneE15 gneE16"/>
    </vehicle>
    <vehicle id="31" depart="31.00">
        <route edges="gneE13 gneE4 gneE5 gneE20"/>
    </vehicle>
    <vehicle id="34" depart="34.00">
        <route edges="-gneE33 -gneE32 -gneE31 -gneE30"/>
    </vehicle>
    <vehicle id="36" depart="36.00">
        <route edges="gneE38 -gneE34 -gneE33"/>
    </vehicle>
    <vehicle id="39" depart="39.00">
        <route edges="-gneE3"/>
    </vehicle>
    <vehicle id="51" depart="51.00">
        <route edges="gneE24 gneE2 -gneE3 gneE10 gneE11 gneE12"/>
    </vehicle>
    <vehicle id="55" depart="55.00">
        <route edges="gneE38 -gneE34 -gneE33 -gneE32 -gneE31 -gneE30"/>
    </vehicle>
    <vehicle id="63" depart="63.00">
        <route edges="-gneE11 -gneE10 gneE3 gneE5"/>
    </vehicle>
    <vehicle id="71" depart="71.00">
        <route edges="-gneE3 gneE10 gneE11 gneE12 -gneE6 gneE9 gneE39"/>
    </vehicle>
    <vehicle id="72" depart="72.00">
        <route edges="-gneE5 -gneE2 -gneE26"/>
    </vehicle>
    <vehicle id="77" depart="77.00">
        <route edges="-gneE17 -gneE16 -gneE15 -gneE14 gneE13 gneE4 -gneE2 -gneE26"/>
    </vehicle>
    <vehicle id="85" depart="85.00">
        <route edges="gneE6 -gneE12 -gneE11 -gneE10 gneE3 -gneE4 -gneE13 gneE14"/>
    </vehicle>
    <vehicle id="94" depart="94.00">
        <route edges="-gneE20 -gneE5 -gneE3 gneE10 gneE11 gneE12 -gneE6"/>
    </vehicle>
</routes>
