<?xml version="1.0" encoding="UTF-8"?>

<!-- generated on 2025-04-14 23:42:03.092155 by randomTrips.py UNKNOWN
<configuration>
    <net-file value="city2.net.xml"/>
    <route-file value="city2.rou.xml"/>
    <end value="100.0"/>
</configuration>
-->

<routes xmlns:xsi="http://www.w3.org/2001/XMLSchema-instance" xsi:noNamespaceSchemaLocation="http://sumo.dlr.de/xsd/routes_file.xsd">
    <trip id="0" depart="0.00" from="gneE2" to="-gneE11"/>
    <trip id="1" depart="1.00" from="-gneE31" to="-gneE26"/>
    <trip id="2" depart="2.00" from="gneE29" to="gneE2"/>
    <trip id="3" depart="3.00" from="gneE39" to="-gneE15"/>
    <trip id="4" depart="4.00" from="-gneE5" to="-gneE11"/>
    <trip id="5" depart="5.00" from="-gneE23" to="gneE10"/>
    <trip id="6" depart="6.00" from="-gneE11" to="-gneE25"/>
    <trip id="7" depart="7.00" from="gneE22" to="gneE12"/>
    <trip id="8" depart="8.00" from="-gneE23" to="gneE15"/>
    <trip id="9" depart="9.00" from="gneE33" to="-gneE10"/>
    <trip id="10" depart="10.00" from="gneE32" to="gneE21"/>
    <trip id="11" depart="11.00" from="-gneE36" to="-gneE22"/>
    <trip id="12" depart="12.00" from="gneE7" to="-gneE34"/>
    <trip id="13" depart="13.00" from="-gneE15" to="-gneE15"/>
    <trip id="14" depart="14.00" from="gneE35" to="gneE16"/>
    <trip id="15" depart="15.00" from="gneE33" to="gneE24"/>
    <trip id="16" depart="16.00" from="gneE12" to="gneE8"/>
    <trip id="17" depart="17.00" from="-gneE39" to="gneE13"/>
    <trip id="18" depart="18.00" from="gneE34" to="gneE17"/>
    <trip id="19" depart="19.00" from="gneE36" to="gneE14"/>
    <trip id="20" depart="20.00" from="gneE25" to="-gneE12"/>
    <trip id="21" depart="21.00" from="-gneE24" to="-gneE31"/>
    <trip id="22" depart="22.00" from="-gneE14" to="-gneE29"/>
    <trip id="23" depart="23.00" from="-gneE16" to="-gneE31"/>
    <trip id="24" depart="24.00" from="gneE2" to="-gneE36"/>
    <trip id="25" depart="25.00" from="-gneE37" to="-gneE25"/>
    <trip id="26" depart="26.00" from="-gneE3" to="gneE6"/>
    <trip id="27" depart="27.00" from="gneE22" to="gneE16"/>
    <trip id="28" depart="28.00" from="-gneE2" to="gneE24"/>
    <trip id="29" depart="29.00" from="-gneE2" to="-gneE38"/>
    <trip id="30" depart="30.00" from="gneE9" to="gneE18"/>
    <trip id="31" depart="31.00" from="gneE13" to="gneE20"/>
    <trip id="32" depart="32.00" from="gneE35" to="gneE31"/>
    <trip id="33" depart="33.00" from="-gneE24" to="-gneE11"/>
    <trip id="34" depart="34.00" from="-gneE33" to="-gneE30"/>
    <trip id="35" depart="35.00" from="-gneE23" to="gneE6"/>
    <trip id="36" depart="36.00" from="gneE38" to="-gneE33"/>
    <trip id="37" depart="37.00" from="gneE22" to="-gneE39"/>
    <trip id="38" depart="38.00" from="gneE4" to="-gneE7"/>
    <trip id="39" depart="39.00" from="-gneE3" to="-gneE3"/>
    <trip id="40" depart="40.00" from="gneE13" to="-gneE30"/>
    <trip id="41" depart="41.00" from="gneE15" to="gneE4"/>
    <trip id="42" depart="42.00" from="-gneE4" to="-gneE26"/>
    <trip id="43" depart="43.00" from="gneE9" to="gneE10"/>
    <trip id="44" depart="44.00" from="-gneE15" to="-gneE12"/>
    <trip id="45" depart="45.00" from="-gneE16" to="gneE17"/>
    <trip id="46" depart="46.00" from="gneE32" to="-gneE5"/>
    <trip id="47" depart="47.00" from="-gneE13" to="-gneE38"/>
    <trip id="48" depart="48.00" from="gneE9" to="gneE11"/>
    <trip id="49" depart="49.00" from="gneE8" to="gneE37"/>
    <trip id="50" depart="50.00" from="-gneE10" to="gneE23"/>
    <trip id="51" depart="51.00" from="gneE24" to="gneE12"/>
    <trip id="52" depart="52.00" from="-gneE3" to="gneE18"/>
    <trip id="53" depart="53.00" from="-gneE16" to="-gneE5"/>
    <trip id="54" depart="54.00" from="-gneE7" to="gneE7"/>
    <trip id="55" depart="55.00" from="gneE38" to="-gneE30"/>
    <trip id="56" depart="56.00" from="gneE10" to="-gneE24"/>
    <trip id="57" depart="57.00" from="gneE4" to="gneE37"/>
    <trip id="58" depart="58.00" from="-gneE32" to="gneE18"/>
    <trip id="59" depart="59.00" from="gneE16" to="-gneE22"/>
    <trip id="60" depart="60.00" from="gneE30" to="gneE12"/>
    <trip id="61" depart="61.00" from="gneE31" to="gneE11"/>
    <trip id="62" depart="62.00" from="-gneE10" to="-gneE34"/>
    <trip id="63" depart="63.00" from="-gneE11" to="gneE5"/>
    <trip id="64" depart="64.00" from="gneE38" to="gneE34"/>
    <trip id="65" depart="65.00" from="-gneE33" to="-gneE13"/>
    <trip id="66" depart="66.00" from="gneE38" to="gneE6"/>
    <trip id="67" depart="67.00" from="-gneE15" to="-gneE9"/>
    <trip id="68" depart="68.00" from="-gneE14" to="gneE3"/>
    <trip id="69" depart="69.00" from="gneE30" to="-gneE17"/>
    <trip id="70" depart="70.00" from="-gneE8" to="gneE13"/>
    <trip id="71" depart="71.00" from="-gneE3" to="gneE39"/>
    <trip id="72" depart="72.00" from="-gneE5" to="-gneE26"/>
    <trip id="73" depart="73.00" from="gneE12" to="gneE24"/>
    <trip id="74" depart="74.00" from="-gneE21" to="-gneE33"/>
    <trip id="75" depart="75.00" from="gneE9" to="gneE19"/>
    <trip id="76" depart="76.00" from="-gneE6" to="gneE11"/>
    <trip id="77" depart="77.00" from="-gneE17" to="-gneE26"/>
    <trip id="78" depart="78.00" from="-gneE34" to="gneE15"/>
    <trip id="79" depart="79.00" from="-gneE24" to="-gneE26"/>
    <trip id="80" depart="80.00" from="-gneE14" to="gneE18"/>
    <trip id="81" depart="81.00" from="-gneE24" to="gneE40"/>
    <trip id="82" depart="82.00" from="gneE36" to="-gneE14"/>
    <trip id="83" depart="83.00" from="-gneE24" to="gneE2"/>
    <trip id="84" depart="84.00" from="-gneE23" to="-gneE2"/>
    <trip id="85" depart="85.00" from="gneE6" to="gneE14"/>
    <trip id="86" depart="86.00" from="-gneE8" to="gneE31"/>
    <trip id="87" depart="87.00" from="gneE33" to="-gneE24"/>
    <trip id="88" depart="88.00" from="-gneE16" to="-gneE5"/>
    <trip id="89" depart="89.00" from="-gneE5" to="-gneE7"/>
    <trip id="90" depart="90.00" from="gneE29" to="gneE2"/>
    <trip id="91" depart="91.00" from="gneE9" to="-gneE16"/>
    <trip id="92" depart="92.00" from="-gneE4" to="-gneE35"/>
    <trip id="93" depart="93.00" from="gneE36" to="-gneE3"/>
    <trip id="94" depart="94.00" from="-gneE20" to="-gneE6"/>
    <trip id="95" depart="95.00" from="-gneE5" to="-gneE31"/>
    <trip id="96" depart="96.00" from="-gneE26" to="gneE5"/>
    <trip id="97" depart="97.00" from="-gneE6" to="gneE37"/>
    <trip id="98" depart="98.00" from="gneE13" to="-gneE13"/>
    <trip id="99" depart="99.00" from="gneE9" to="gneE34"/>
</routes>
